@<TRIPOS>MOLECULE
ADS158081_precap.pdb
 95 100 0 0 0
SMALL
GASTEIGER

@<TRIPOS>ATOM
      1  C         15.4420    1.5250  -26.6010 C.2     1  UNL1        0.2336
      2  C1        15.7780    2.9120  -26.0280 C.3     1  UNL1        0.1022
      3  C2        13.3750    3.6780  -25.7540 C.2     1  UNL1        0.2170
      4  C3        13.2660    4.4660  -27.0770 C.3     1  UNL1        0.0332
      5  C4        13.8670    5.9150  -26.9270 C.3     1  UNL1        0.0020
      6  C5        15.0570    3.9370  -23.9650 C.3     1  UNL1        0.0155
      7  C6        16.5760    3.7780  -23.9090 C.3     1  UNL1       -0.0350
      8  C7        16.9170    2.7820  -24.9980 C.3     1  UNL1       -0.0243
      9  C8        14.5650   -0.7400  -26.1220 C.3     1  UNL1        0.0170
     10  C9        15.8920   -1.5180  -26.1570 C.3     1  UNL1        0.0032
     11  C10       15.7420   -2.9930  -26.3080 C.ar    1  UNL1        0.0197
     12  C11       16.2460   -3.9730  -25.5000 C.ar    1  UNL1       -0.0312
     13  C12       15.8390   -5.2390  -26.0460 C.ar    1  UNL1        0.0267
     14  C13       15.9750   -6.6120  -25.7010 C.ar    1  UNL1       -0.0022
     15  C14       16.5970   -7.0810  -24.4430 C.ar    1  UNL1        0.0298
     16  C15       16.6970   -6.5500  -23.1320 C.ar    1  UNL1        0.0954
     17  C16       16.1440   -5.3500  -22.6200 C.ar    1  UNL1       -0.0324
     18  C17       16.4860   -5.0420  -21.2870 C.ar    1  UNL1       -0.0398
     19  C18       17.3070   -5.9300  -20.5570 C.ar    1  UNL1        0.0500
     20  C19       17.2870   -8.3160  -24.2430 C.ar    1  UNL1        0.0597
     21  C20       15.5000   -7.5660  -26.6270 C.ar    1  UNL1       -0.0351
     22  C21       14.8750   -7.1490  -27.8170 C.ar    1  UNL1        0.0305
     23  C22       15.1520   -4.9630  -27.2640 C.ar    1  UNL1        0.1389
     24  N         14.6470    3.5250  -25.3050 N.am    1  UNL1       -0.2899
     25  N1        14.8160    0.6560  -25.7870 N.am    1  UNL1       -0.3134
     26  N2        17.7640   -7.1190  -21.0250 N.ar    1  UNL1       -0.1571
     27  N3        17.4320   -7.3590  -22.2910 N.ar    1  UNL1       -0.1497
     28  N4        17.7630   -8.4760  -22.9970 N.ar    1  UNL1       -0.1565
     29  N5        14.6630   -5.8630  -28.1590 N.ar    1  UNL1       -0.2375
     30  N6        15.0710   -3.5900  -27.3600 N.ar    1  UNL1       -0.3429
     31  O         15.7590    1.2550  -27.7570 O.2     1  UNL1       -0.2738
     32  O1        12.4070    3.6860  -24.9920 O.2     1  UNL1       -0.2756
     33  H         16.0960    3.5790  -26.8300 H       1  UNL1        0.0597
     34  H1        14.5800    3.2820  -23.2330 H       1  UNL1        0.0465
     35  H2        14.7750    4.9710  -23.7600 H       1  UNL1        0.0465
     36  H3        16.9340    3.4730  -22.9260 H       1  UNL1        0.0281
     37  H4        17.0460    4.7290  -24.1590 H       1  UNL1        0.0281
     38  H5        16.9560    1.7860  -24.5560 H       1  UNL1        0.0288
     39  H6        17.8950    2.9720  -25.4400 H       1  UNL1        0.0288
     40  H7        14.0400   -0.8110  -27.0750 H       1  UNL1        0.0466
     41  H8        13.9030   -1.1520  -25.3600 H       1  UNL1        0.0466
     42  H9        16.4400   -1.3160  -25.2350 H       1  UNL1        0.0343
     43  H10       16.5250   -1.1420  -26.9590 H       1  UNL1        0.0343
     44  H11       16.8480   -3.8120  -24.6180 H       1  UNL1        0.0642
     45  H12       15.4960   -4.7110  -23.1910 H       1  UNL1        0.0640
     46  H13       16.1110   -4.1410  -20.8210 H       1  UNL1        0.0634
     47  H14       17.5600   -5.7080  -19.5290 H       1  UNL1        0.0848
     48  H15       17.4650   -9.1040  -24.9600 H       1  UNL1        0.0855
     49  H16       15.5990   -8.6230  -26.4310 H       1  UNL1        0.0639
     50  H17       14.5260   -7.8880  -28.5210 H       1  UNL1        0.0830
     51  H18       14.6190    0.9350  -24.8280 H       1  UNL1        0.1487
     52  H19       14.6000   -3.0820  -28.1010 H       1  UNL1        0.1670
     53  N         14.4540   10.9620  -31.6090 N.3   314  ASP314     -0.2435
     54  CA        14.0820   12.0760  -30.7230 C.3   314  ASP314      0.1082
     55  C         14.3340   11.7200  -29.2540 C.2   314  ASP314      0.2325
     56  O         14.9340   12.5250  -28.5470 O.2   314  ASP314     -0.2740
     57  N         13.9230   10.4960  -28.8370 N.am  315  CYS315     -0.3019
     58  CA        14.1940    9.9020  -27.5120 C.3   315  CYS315      0.1084
     59  C         15.6850    9.5260  -27.3820 C.2   315  CYS315      0.2347
     60  O         16.0350    8.3560  -27.4850 O.2   315  CYS315     -0.2737
     61  N         16.5120   10.5620  -27.1760 N.am  316  HIS316     -0.3033
     62  CA        17.9510   10.6760  -27.3870 C.3   316  HIS316      0.0944
     63  C         18.7560    9.4120  -27.0750 C.2   316  HIS316      0.2203
     64  O         18.9470    8.5470  -27.9280 O.2   316  HIS316     -0.2869
     65  H         13.7040   10.5350  -32.1330 H     314  ASP314      0.1414
     66  H         13.5040    9.8690  -29.5140 H     315  CYS315      0.1495
     67  H         16.0610   11.4510  -27.0050 H     316  HIS316      0.1495
     68  CB        12.6230   12.5370  -31.0230 C.3   314  ASP314      0.0742
     69  CG        11.8150   13.3780  -30.0100 C.2   314  ASP314      0.3580
     70  OD1       12.3340   13.7730  -28.9440 O.co2 314  ASP314     -0.2463
     71  OD2       10.6410   13.6370  -30.3490 O.co2 314  ASP314     -0.2463
     72  HB2       12.6140   13.0680  -31.9750 H     314  ASP314      0.0400
     73  HB3       12.0090   11.6570  -31.1750 H     314  ASP314      0.0400
     74  HA        14.7400   12.9140  -30.9590 H     314  ASP314      0.0575
     75  CB        18.4910   11.9380  -26.6620 C.3   316  HIS316      0.0168
     76  CG        17.9110   13.2660  -27.0790 C.ar  316  HIS316      0.0610
     77  ND1       16.7530   13.7960  -26.4990 N.ar  316  HIS316     -0.2408
     78  CD2       18.3870   14.1580  -28.0170 C.ar  316  HIS316      0.0243
     79  CE1       16.5650   14.9570  -27.1130 C.ar  316  HIS316      0.0936
     80  NE2       17.5070   15.2260  -28.0170 N.ar  316  HIS316     -0.3506
     81  HB2       18.3350   11.8510  -25.5850 H     316  HIS316      0.0351
     82  HB3       19.5700   12.0030  -26.8110 H     316  HIS316      0.0351
     83  HD2       19.2500   14.1180  -28.6640 H     316  HIS316      0.0825
     84  HE1       15.7340   15.6140  -26.9020 H     316  HIS316      0.1027
     85  HA        18.0760   10.8460  -28.4590 H     316  HIS316      0.0586
     86  HE2       17.5570   16.0480  -28.6020 H     316  HIS316      0.1662
     87  CB        13.2090    8.7660  -27.0640 C.3   315  CYS315      0.0207
     88  SG        13.1110    7.1910  -28.0160 S.3   315  CYS315     -0.1580
     89  HB2       13.4050    8.5210  -26.0200 H     315  CYS315      0.0399
     90  HB3       12.1990    9.1780  -27.0680 H     315  CYS315      0.0399
     91  HA        14.0310   10.7080  -26.7940 H     315  CYS315      0.0603
     92 H3_1       12.2070    4.5230  -27.3230 H     565  UNL565      0.0366
     93 H3_2       13.7180    3.9070  -27.8920 H     565  UNL565      0.0366
     94 H4_1       14.9380    5.8670  -27.1250 H     565  UNL565      0.0381
     95 H4_2       13.7500    6.2830  -25.9060 H     565  UNL565      0.0381
@<TRIPOS>BOND
     1    65    53    1
     2    72    68    1
     3    53    54    1
     4    73    68    1
     5    68    54    1
     6    68    69    1
     7    74    54    1
     8    54    55    1
     9    71    69   ar
    10    69    70   ar
    11    66    57    1
    12    55    57   am
    13    55    56    2
    14    57    58    1
    15    83    78    1
    16    86    80    1
    17    50    22    1
    18    85    62    1
    19    29    22   ar
    20    29    23   ar
    21    52    30    1
    22    78    80   ar
    23    78    76   ar
    24    80    79   ar
    25    88    87    1
    26    88     5    1
    27    64    63    2
    28    93     4    1
    29    22    21   ar
    30    31     1    2
    31    58    59    1
    32    58    87    1
    33    58    91    1
    34    60    59    2
    35    62    61    1
    36    62    63    1
    37    62    75    1
    38    59    61   am
    39    30    23   ar
    40    30    11   ar
    41    92     4    1
    42    23    13   ar
    43    61    67    1
    44    94     5    1
    45    79    84    1
    46    79    77   ar
    47    76    75    1
    48    76    77   ar
    49     4     5    1
    50     4     3    1
    51    40     9    1
    52    90    87    1
    53    87    89    1
    54    43    10    1
    55     5    95    1
    56    33     2    1
    57    82    75    1
    58    75    81    1
    59    21    49    1
    60    21    14   ar
    61     1     2    1
    62     1    25   am
    63    11    10    1
    64    11    12   ar
    65    10     9    1
    66    10    42    1
    67     9    25    1
    68     9    41    1
    69    13    14   ar
    70    13    12   ar
    71     2    24    1
    72     2     8    1
    73    25    51    1
    74     3    24   am
    75     3    32    2
    76    14    15    1
    77    12    44    1
    78    39     8    1
    79    24     6    1
    80     8    38    1
    81     8     7    1
    82    48    20    1
    83    15    20   ar
    84    15    16   ar
    85    20    28   ar
    86    37     7    1
    87     6     7    1
    88     6    35    1
    89     6    34    1
    90     7    36    1
    91    45    17    1
    92    16    17   ar
    93    16    27   ar
    94    28    27   ar
    95    17    18   ar
    96    27    26   ar
    97    18    46    1
    98    18    19   ar
    99    26    19   ar
   100    19    47    1
