@<TRIPOS>MOLECULE
Cpptraj
   78    78     1     0     0
SMALL
No Charge or Current Charge


@<TRIPOS>ATOM
      1 C1          15.4420     1.5250   -26.6010 c          1 LIG       0.326788
      2 C2          15.7780     2.9120   -26.0280 c3         1 LIG       0.037112
      3 C3          13.3750     3.6780   -25.7540 c          1 LIG       0.189909
      4 C4          13.2660     4.4660   -27.0770 c3         1 LIG       0.293588
      5 C5          13.8670     5.9150   -26.9270 c3         1 LIG      -0.182543
      6 C6          15.0570     3.9370   -23.9650 c3         1 LIG      -0.123443
      7 C7          16.5760     3.7780   -23.9090 c3         1 LIG      -0.116612
      8 C8          16.9170     2.7820   -24.9980 c3         1 LIG       0.104413
      9 C9          14.5650    -0.7400   -26.1220 c3         1 LIG      -0.155440
     10 C10         15.8920    -1.5180   -26.1570 c3         1 LIG       0.092445
     11 C11         15.7420    -2.9930   -26.3080 c2         1 LIG       0.046697
     12 C12         16.2460    -3.9730   -25.5000 c2         1 LIG      -0.431903
     13 C13         15.8390    -5.2390   -26.0460 c2         1 LIG       0.032019
     14 C14         15.9750    -6.6120   -25.7010 c2         1 LIG       0.076691
     15 C15         16.5970    -7.0810   -24.4430 c2         1 LIG      -0.137368
     16 C16         16.6970    -6.5500   -23.1320 c2         1 LIG      -0.002520
     17 C17         16.1440    -5.3500   -22.6200 c2         1 LIG      -0.066898
     18 C18         16.4860    -5.0420   -21.2870 c2         1 LIG      -0.299369
     19 C19         17.3070    -5.9300   -20.5570 c2         1 LIG       0.158741
     20 C20         17.2870    -8.3160   -24.2430 c2         1 LIG       0.066414
     21 C21         15.5000    -7.5660   -26.6270 c2         1 LIG      -0.371193
     22 C22         14.8750    -7.1490   -27.8170 c2         1 LIG       0.239154
     23 C23         15.1520    -4.9630   -27.2640 c2         1 LIG       0.535085
     24 N1          14.6470     3.5250   -25.3050 n          1 LIG      -0.100080
     25 N2          14.8160     0.6560   -25.7870 n          1 LIG      -0.254057
     26 N3          17.7640    -7.1190   -21.0250 n2         1 LIG      -0.488857
     27 N4          17.4320    -7.3590   -22.2910 na         1 LIG       0.700194
     28 N5          17.7630    -8.4760   -22.9970 n2         1 LIG      -0.587611
     29 N6          14.6630    -5.8630   -28.1590 n2         1 LIG      -0.629146
     30 N7          15.0710    -3.5900   -27.3600 na         1 LIG      -0.477179
     31 O1          15.7590     1.2550   -27.7570 o          1 LIG      -0.532516
     32 O2          12.4070     3.6860   -24.9920 o          1 LIG      -0.499504
     33 H1          16.0960     3.5790   -26.8300 h1         1 LIG       0.067370
     34 H2          14.5800     3.2820   -23.2330 h1         1 LIG       0.089148
     35 H3          14.7750     4.9710   -23.7600 h1         1 LIG       0.089148
     36 H4          16.9340     3.4730   -22.9260 hc         1 LIG       0.055207
     37 H5          17.0460     4.7290   -24.1590 hc         1 LIG       0.055207
     38 H6          16.9560     1.7860   -24.5560 hc         1 LIG      -0.000413
     39 H7          17.8950     2.9720   -25.4400 hc         1 LIG      -0.000413
     40 H8          14.0400    -0.8110   -27.0750 h1         1 LIG       0.109948
     41 H9          13.9030    -1.1520   -25.3600 h1         1 LIG       0.109948
     42 H10         16.4400    -1.3160   -25.2350 hc         1 LIG       0.055032
     43 H11         16.5250    -1.1420   -26.9590 hc         1 LIG       0.055032
     44 H12         16.8480    -3.8120   -24.6180 ha         1 LIG       0.194059
     45 H13         15.4960    -4.7110   -23.1910 ha         1 LIG       0.173414
     46 H14         16.1110    -4.1410   -20.8210 ha         1 LIG       0.174217
     47 H15         17.5600    -5.7080   -19.5290 h4         1 LIG       0.144085
     48 H16         17.4650    -9.1040   -24.9600 h4         1 LIG       0.188044
     49 H17         15.5990    -8.6230   -26.4310 ha         1 LIG       0.150179
     50 H18         14.5260    -7.8880   -28.5210 h4         1 LIG       0.104063
     51 H19         14.6190     0.9350   -24.8280 hn         1 LIG       0.274243
     52 H20         14.6000    -3.0820   -28.1010 hn         1 LIG       0.368038
     53 H21         14.4540    10.9620   -31.6090 DU         1 LIG       0.119421
     54 C24         14.0820    12.0760   -30.7230 c1         1 LIG      -0.616112
     55 C25         14.3340    11.7200   -29.2540 c          1 LIG       0.691124
     56 O3          14.9340    12.5250   -28.5470 o          1 LIG      -0.557104
     57 N8          13.9230    10.4960   -28.8370 n          1 LIG      -0.403821
     58 C26         14.1940     9.9020   -27.5120 c3         1 LIG      -0.003200
     59 C27         15.6850     9.5260   -27.3820 c          1 LIG       0.424475
     60 O4          16.0350     8.3560   -27.4850 o          1 LIG      -0.479319
     61 N9          16.5120    10.5620   -27.1760 n          1 LIG      -0.125291
     62 C28         17.9510    10.6760   -27.3870 c1         1 LIG      -0.509686
     63 H22         18.7560     9.4120   -27.0750 DU         1 LIG       0.119421
     64 H23         13.5040     9.8690   -29.5140 hn         1 LIG       0.331311
     65 H24         16.0610    11.4510   -27.0050 hn         1 LIG       0.238789
     66 H25         12.6230    12.5370   -31.0230 DU         1 LIG       0.119421
     67 H26         14.7400    12.9140   -30.9590 ha         1 LIG       0.241940
     68 H27         18.4910    11.9380   -26.6620 DU         1 LIG       0.119421
     69 H28         18.0760    10.8460   -28.4590 ha         1 LIG       0.240610
     70 C29         13.2090     8.7660   -27.0640 c3         1 LIG      -0.100723
     71 S1          13.1110     7.1910   -28.0160 ss         1 LIG      -0.334747
     72 H29         13.4050     8.5210   -26.0200 h1         1 LIG       0.120106
     73 H30         12.1990     9.1780   -27.0680 h1         1 LIG       0.120106
     74 H31         14.0310    10.7080   -26.7940 h1         1 LIG       0.064620
     75 H32         12.2070     4.5230   -27.3230 hc         1 LIG       0.009131
     76 H33         13.7180     3.9070   -27.8920 hc         1 LIG       0.009131
     77 H34         14.9380     5.8670   -27.1250 h1         1 LIG       0.131205
     78 H35         13.7500     6.2830   -25.9060 h1         1 LIG       0.131205
@<TRIPOS>BOND
     1     1     2 1   
     2     1    25 1   
     3     1    31 1   
     4     2     8 1   
     5     2    24 1   
     6     2    33 1   
     7     3     4 1   
     8     3    24 1   
     9     3    32 1   
    10     4     5 1   
    11     4    75 1   
    12     4    76 1   
    13     5    71 1   
    14     5    77 1   
    15     5    78 1   
    16     6     7 1   
    17     6    24 1   
    18     6    34 1   
    19     6    35 1   
    20     7     8 1   
    21     7    36 1   
    22     7    37 1   
    23     8    38 1   
    24     8    39 1   
    25     9    10 1   
    26     9    25 1   
    27     9    40 1   
    28     9    41 1   
    29    10    11 1   
    30    10    42 1   
    31    10    43 1   
    32    11    12 1   
    33    11    30 1   
    34    12    13 1   
    35    12    44 1   
    36    13    14 1   
    37    13    23 1   
    38    14    15 1   
    39    14    21 1   
    40    15    16 1   
    41    15    20 1   
    42    16    17 1   
    43    16    27 1   
    44    17    18 1   
    45    17    45 1   
    46    18    19 1   
    47    18    46 1   
    48    19    26 1   
    49    19    47 1   
    50    20    28 1   
    51    20    48 1   
    52    21    22 1   
    53    21    49 1   
    54    22    29 1   
    55    22    50 1   
    56    23    29 1   
    57    23    30 1   
    58    25    51 1   
    59    26    27 1   
    60    27    28 1   
    61    30    52 1   
    62    54    55 1   
    63    54    67 1   
    64    55    56 1   
    65    55    57 1   
    66    57    58 1   
    67    57    64 1   
    68    58    59 1   
    69    58    70 1   
    70    58    74 1   
    71    59    60 1   
    72    59    61 1   
    73    61    62 1   
    74    61    65 1   
    75    62    69 1   
    76    70    71 1   
    77    70    72 1   
    78    70    73 1   
@<TRIPOS>SUBSTRUCTURE
     1 LIG         1 TEMP              0 ****  ****    0 ROOT
