@<TRIPOS>MOLECULE
LIG
   78    78     1     0     0
SMALL
resp


@<TRIPOS>ATOM
      1 C1          -0.2030    -0.4530    -0.3090 c2         1 LIG       0.326788
      2 C2          -1.3890     0.5250    -0.3590 c3         1 LIG       0.037112
      3 C3          -2.3170    -0.0620     1.9280 c2         1 LIG       0.189909
      4 C4          -3.3830    -1.0740     1.4560 c3         1 LIG       0.293588
      5 C5          -4.6950    -0.3390     0.9840 c3         1 LIG      -0.182543
      6 C6          -2.0040     2.2720     1.1890 c3         1 LIG      -0.123443
      7 C7          -1.6820     2.9230    -0.1570 c3         1 LIG      -0.116612
      8 C8          -0.9200     1.8730    -0.9390 c3         1 LIG       0.104413
      9 C9           2.0100    -0.9520     0.6820 c3         1 LIG      -0.155440
     10 C10          2.8930    -0.6130    -0.5320 c3         1 LIG       0.092445
     11 C11          4.2760    -1.1650    -0.4670 c2         1 LIG       0.046697
     12 C12          5.4550    -0.4840    -0.5740 c2         1 LIG      -0.431903
     13 C13          6.5220    -1.4390    -0.4480 c2         1 LIG       0.032019
     14 C14          7.9440    -1.4120    -0.4250 c2         1 LIG       0.076691
     15 C15          8.7390    -0.1640    -0.4420 c2         1 LIG      -0.137368
     16 C16          8.5220     1.1520     0.0370 c2         1 LIG      -0.002520
     17 C17          7.4130     1.6570     0.7610 c2         1 LIG      -0.066898
     18 C18          7.4420     3.0410     1.0320 c2         1 LIG      -0.299369
     19 C19          8.5480     3.8100     0.6050 c2         1 LIG       0.158741
     20 C20         10.0510     0.0020    -0.9820 c2         1 LIG       0.066414
     21 C21          8.6180    -2.6530    -0.4020 c2         1 LIG      -0.371193
     22 C22          7.8880    -3.8550    -0.3530 c2         1 LIG       0.239154
     23 C23          5.9170    -2.7260    -0.3560 c2         1 LIG       0.535085
     24 N1          -1.9400     0.8290     0.9760 n          1 LIG      -0.100080
     25 N2           0.7550    -0.2160     0.6050 n          1 LIG      -0.254057
     26 N3           9.6450     3.3060    -0.0130 n2         1 LIG      -0.488857
     27 N4           9.5660     2.0010    -0.2630 na         1 LIG       0.700194
     28 N5          10.5290     1.2530    -0.8710 n2         1 LIG      -0.587611
     29 N6           6.5440    -3.9320    -0.3060 n2         1 LIG      -0.629146
     30 N7           4.5550    -2.5110    -0.3200 na         1 LIG      -0.477179
     31 O1          -0.1620    -1.3960    -1.0960 o          1 LIG      -0.532516
     32 O2          -2.2560     0.1980     3.1310 o          1 LIG      -0.499504
     33 H1          -2.1790     0.1190    -0.9900 h1         1 LIG       0.067370
     34 H2          -1.2560     2.5530     1.9340 h1         1 LIG       0.089148
     35 H3          -2.9910     2.5830     1.5350 h1         1 LIG       0.089148
     36 H4          -1.1340     3.8590    -0.0540 hc         1 LIG       0.055207
     37 H5          -2.6120     3.1320    -0.6850 hc         1 LIG       0.055207
     38 H6           0.1470     2.0350    -0.7860 hc         1 LIG      -0.000413
     39 H7          -1.1020     1.9450    -2.0110 hc         1 LIG      -0.000413
     40 H8           1.8160    -2.0240     0.7420 h1         1 LIG       0.109948
     41 H9           2.5100    -0.6650     1.6070 h1         1 LIG       0.109948
     42 H10          2.9550     0.4730    -0.6250 hc         1 LIG       0.055032
     43 H11          2.4170    -0.9560    -1.4480 hc         1 LIG       0.055032
     44 H12          5.5540     0.5800    -0.7340 ha         1 LIG       0.194059
     45 H13          6.6020     1.0400     1.1000 ha         1 LIG       0.173414
     46 H14          6.6320     3.5090     1.5750 ha         1 LIG       0.174217
     47 H15          8.5840     4.8690     0.8240 h4         1 LIG       0.144085
     48 H16         10.6770    -0.7400    -1.4550 h4         1 LIG       0.188044
     49 H17          9.6960    -2.6960    -0.4100 ha         1 LIG       0.150179
     50 H18          8.4150    -4.7960    -0.3460 h4         1 LIG       0.104063
     51 H19          0.6750     0.6070     1.2000 hn         1 LIG       0.274243
     52 H20          3.8520    -3.2350    -0.2150 hn         1 LIG       0.368038
     53 H21        -10.5600    -2.9620    -1.5580 DU         1 LIG       0.119421
     54 C24        -11.4840    -2.0750    -0.8350 c1         1 LIG      -0.616112
     55 C25        -10.7900    -0.7710    -0.4260 c2         1 LIG       0.691124
     56 O3         -11.3550     0.2950    -0.6580 o          1 LIG      -0.557104
     57 N8          -9.5530    -0.8760     0.1210 n          1 LIG      -0.403821
     58 C26         -8.6580     0.2530     0.4490 c3         1 LIG      -0.003200
     59 C27         -8.1130     0.9030    -0.8400 c2         1 LIG       0.424475
     60 O4          -6.9640     0.6780    -1.2040 o          1 LIG      -0.479319
     61 N9          -8.9880     1.6830    -1.4930 n          1 LIG      -0.125291
     62 C28         -8.9980     2.1320    -2.8800 c1         1 LIG      -0.509686
     63 H22         -7.6210     2.4380    -3.4750 DU         1 LIG       0.119421
     64 H23         -9.1360    -1.7960     0.2030 hn         1 LIG       0.331311
     65 H24         -9.8590     1.8570    -1.0090 hn         1 LIG       0.238789
     66 H25        -12.1460    -2.8400     0.3520 DU         1 LIG       0.119421
     67 H26        -12.2820    -1.8010    -1.5270 ha         1 LIG       0.241940
     68 H27        -10.0080     3.2990    -3.0490 DU         1 LIG       0.119421
     69 H28         -9.3860     1.2890    -3.4570 ha         1 LIG       0.240610
     70 C29         -7.5580    -0.0450     1.5270 c3         1 LIG      -0.100723
     71 S1          -6.2490    -1.3000     1.1970 ss         1 LIG      -0.334747
     72 H29         -7.0710     0.8900     1.8020 h1         1 LIG       0.120106
     73 H30         -8.0620    -0.3750     2.4370 h1         1 LIG       0.120106
     74 H31         -9.2990     1.0070     0.9090 h1         1 LIG       0.064620
     75 H32         -3.6000    -1.7210     2.3040 hc         1 LIG       0.009131
     76 H33         -2.9740    -1.7310     0.6930 hc         1 LIG       0.009131
     77 H34         -4.5820    -0.0720    -0.0670 h1         1 LIG       0.131205
     78 H35         -4.8390     0.5930     1.5330 h1         1 LIG       0.131205
@<TRIPOS>BOND
     1     1     2 1   
     2     1    25 1   
     3     1    31 1   
     4     2     8 1   
     5     2    24 1   
     6     2    33 1   
     7     3     4 1   
     8     3    24 1   
     9     3    32 1   
    10     4     5 1   
    11     4    75 1   
    12     4    76 1   
    13     5    71 1   
    14     5    77 1   
    15     5    78 1   
    16     6     7 1   
    17     6    24 1   
    18     6    34 1   
    19     6    35 1   
    20     7     8 1   
    21     7    36 1   
    22     7    37 1   
    23     8    38 1   
    24     8    39 1   
    25     9    10 1   
    26     9    25 1   
    27     9    40 1   
    28     9    41 1   
    29    10    11 1   
    30    10    42 1   
    31    10    43 1   
    32    11    12 1   
    33    11    30 1   
    34    12    13 1   
    35    12    44 1   
    36    13    14 1   
    37    13    23 1   
    38    14    15 1   
    39    14    21 1   
    40    15    16 1   
    41    15    20 1   
    42    16    17 1   
    43    16    27 1   
    44    17    18 1   
    45    17    45 1   
    46    18    19 1   
    47    18    46 1   
    48    19    26 1   
    49    19    47 1   
    50    20    28 1   
    51    20    48 1   
    52    21    22 1   
    53    21    49 1   
    54    22    29 1   
    55    22    50 1   
    56    23    29 1   
    57    23    30 1   
    58    25    51 1   
    59    26    27 1   
    60    27    28 1   
    61    30    52 1   
    62    54    55 1   
    63    54    67 1   
    64    55    56 1   
    65    55    57 1   
    66    57    58 1   
    67    57    64 1   
    68    58    59 1   
    69    58    70 1   
    70    58    74 1   
    71    59    60 1   
    72    59    61 1   
    73    61    62 1   
    74    61    65 1   
    75    62    69 1   
    76    70    71 1   
    77    70    72 1   
    78    70    73 1   
@<TRIPOS>SUBSTRUCTURE
     1 LIG         1 TEMP              0 ****  ****    0 ROOT
